/*--------------------------------*- C++ -*----------------------------------*\
| =========                 |                                                 |
| \\      /  F ield         | OpenFOAM: The Open Source CFD Toolbox           |
|  \\    /   O peration     | Version:  2.3.0                                 |
|   \\  /    A nd           | Web:      www.OpenFOAM.org                      |
|    \\/     M anipulation  |                                                 |
\*---------------------------------------------------------------------------*/
FoamFile
{
    version     2.0;
    format      ascii;
    class       volScalarField;
    location    "0/solid";
    object      K;
}
// * * * * * * * * * * * * * * * * * * * * * * * * * * * * * * * * * * * * * //

dimensions      [ 1 1 -3 -1 0 0 0 ];

internalField   uniform 55;

boundaryField
{
    walls
    {
        type            symmetry;
    }
    down
    {
        type            zeroGradient;
    }
    frontAndBack
    {
        type            symmetry;
    }
    solid_to_fluid
    {
        type            zeroGradient;
        value           uniform 0;
    }
}


// ************************************************************************* //
