/*--------------------------------*- C++ -*----------------------------------*\
| =========                 |                                                 |
| \\      /  F ield         | OpenFOAM: The Open Source CFD Toolbox           |
|  \\    /   O peration     | Version:  v1812                                 |
|   \\  /    A nd           | Web:      www.OpenFOAM.com                      |
|    \\/     M anipulation  |                                                 |
\*---------------------------------------------------------------------------*/
FoamFile
{
    version     2.0;
    format      ascii;
    class       dictionary;
    location    "constant";
    object      transportProperties;
}
// * * * * * * * * * * * * * * * * * * * * * * * * * * * * * * * * * * * * * //

phases (water air);

water
{
    transportModel  Newtonian;
    nu              1e-06;
    rho             1000;
}

air
{
    transportModel  Newtonian;
    nu              1.48e-05;
    rho             1;
}

//sigma           0.07;

sigma
{
            type                particleDependent;
            sigma		polynomial 
            (
            	(590e-03        0)
            	(-2e-03   	1)
            );
            //sigma               tableFile;//constant 0.059;
            //file		"constant/surfaceTension";
            //outOfBounds         clamp;       // optional out-of-bounds handling
            //interpolationScheme linear;      // optional interpolation method
}


// ************************************************************************* //
