/*--------------------------------*- C++ -*----------------------------------*\
| =========                 |                                                 |
| \\      /  F ield         | OpenFOAM: The Open Source CFD Toolbox           |
|  \\    /   O peration     | Version:  2.2.1                                 |
|   \\  /    A nd           | Web:      www.OpenFOAM.org                      |
|    \\/     M anipulation  |                                                 |
\*---------------------------------------------------------------------------*/
FoamFile
{
    version     2.0;
    format      ascii;
    class       dictionary;
    location    "system";
    object      setFieldsDict;
}
// * * * * * * * * * * * * * * * * * * * * * * * * * * * * * * * * * * * * * //

defaultFieldValues
(
    volScalarFieldValue alpha.water 1
    //volScalarFieldValue T 360.23
);

regions
(
    sphereToCell
    {
        centre (0.05 0.2 0.05);
        radius 0.01;
        fieldValues
        (
            volScalarFieldValue alpha.water 0
          //  volScalarFieldValue T 373.03
        );
    }
);


// ************************************************************************* //
