/*--------------------------------*- C++ -*----------------------------------*\
| =========                 |                                                 |
| \\      /  F ield         | OpenFOAM: The Open Source CFD Toolbox           |
|  \\    /   O peration     | Version:  2.2.0                                 |
|   \\  /    A nd           | Web:      www.OpenFOAM.org                      |
|    \\/     M anipulation  |                                                 |
\*---------------------------------------------------------------------------*/
FoamFile
{
    version     2.0;
    format      ascii;
    class       volScalarField;
    location    "0";
    object      omega;
}
// * * * * * * * * * * * * * * * * * * * * * * * * * * * * * * * * * * * * * //

dimensions      [0 0 -1 0 0 0 0];

internalField   uniform 0.0001;

boundaryField
{
    fixedWalls
    {
        type            omegaWallFunction;
        value           uniform 0.0001;
    }
    rotatingWall
    {
        type            omegaWallFunction;
        value           uniform 0.0001;
    }
    in
    {
        type            fixedValue;
        value           uniform 0.0001;
    }
    out
    {
        type            inletOutlet;
        inletValue      uniform 0.0001;
        value           uniform 0.0001;
    }
    frontAndBack
    {
        type            empty;
    }
}


// ************************************************************************* //
