/*--------------------------------*- C++ -*----------------------------------*\
  =========                 |
  \\      /  F ield         | OpenFOAM: The Open Source CFD Toolbox
   \\    /   O peration     | Website:  https://openfoam.org
    \\  /    A nd           | Version:  6
     \\/     M anipulation  |
\*---------------------------------------------------------------------------*/
FoamFile
{
    version     2.0;
    format      ascii;
    class       vectorField;
    object      cloudPositions;
}
// * * * * * * * * * * * * * * * * * * * * * * * * * * * * * * * * * * * * * //


(
(0.01601733240434926 0.0004956696983204221 0.00024193548387096774)
(0.01601733240434926 0.0004956696983204221 0.0007258064516129032)
(0.01601733240434926 0.0004956696983204221 0.0012096774193548388)
(0.01601733240434926 0.0004956696983204221 0.0016935483870967741)
(0.01601733240434926 0.0004956696983204221 0.0021774193548387095)
(0.01601733240434926 0.0004956696983204221 0.002661290322580645)
(0.01601733240434926 0.0004956696983204221 0.0031451612903225803)
(0.01601733240434926 0.0004956696983204221 0.003629032258064516)
(0.01601733240434926 0.0004956696983204221 0.004112903225806452)
(0.01601733240434926 0.0004956696983204221 0.004596774193548387)
(0.01601733240434926 0.0004956696983204221 0.005080645161290323)
(0.01601733240434926 0.0004956696983204221 0.005564516129032258)
(0.01601733240434926 0.0004956696983204221 0.006048387096774193)
(0.01601733240434926 0.0004956696983204221 0.006532258064516129)
(0.01601733240434926 0.0004956696983204221 0.0070161290322580646)
(0.01601733240434926 0.0004956696983204221 0.007500000000000001)
(0.01601733240434926 0.0004956696983204221 0.007983870967741936)
(0.01601733240434926 0.0004956696983204221 0.008467741935483872)
(0.01601733240434926 0.0004956696983204221 0.008951612903225806)
(0.01601733240434926 0.0004956696983204221 0.009435483870967742)
(0.01601733240434926 0.0004956696983204221 0.009919354838709678)
(0.01601733240434926 0.0004956696983204221 0.010403225806451612)
(0.01601733240434926 0.0004956696983204221 0.010887096774193548)
(0.01601733240434926 0.0004956696983204221 0.011370967741935484)
(0.01601733240434926 0.0004956696983204221 0.011854838709677419)
(0.01601733240434926 0.0004956696983204221 0.012338709677419355)
(0.01601733240434926 0.0004956696983204221 0.01282258064516129)
(0.01601733240434926 0.0004956696983204221 0.013306451612903227)
(0.01601733240434926 0.0004956696983204221 0.013790322580645161)
(0.01601733240434926 0.0004956696983204221 0.014274193548387097)
(0.01601733240434926 0.0004956696983204221 0.014758064516129033)
(0.01599433687998287 0.0009908650618877888 0.00024193548387096774)
(0.01599433687998287 0.0009908650618877888 0.0007258064516129032)
(0.01599433687998287 0.0009908650618877888 0.0012096774193548388)
(0.01599433687998287 0.0009908650618877888 0.0016935483870967741)
(0.01599433687998287 0.0009908650618877888 0.0021774193548387095)
(0.01599433687998287 0.0009908650618877888 0.002661290322580645)
(0.01599433687998287 0.0009908650618877888 0.0031451612903225803)
(0.01599433687998287 0.0009908650618877888 0.003629032258064516)
(0.01599433687998287 0.0009908650618877888 0.004112903225806452)
(0.01599433687998287 0.0009908650618877888 0.004596774193548387)
(0.01599433687998287 0.0009908650618877888 0.005080645161290323)
(0.01599433687998287 0.0009908650618877888 0.005564516129032258)
(0.01599433687998287 0.0009908650618877888 0.006048387096774193)
(0.01599433687998287 0.0009908650618877888 0.006532258064516129)
(0.01599433687998287 0.0009908650618877888 0.0070161290322580646)
(0.01599433687998287 0.0009908650618877888 0.007500000000000001)
(0.01599433687998287 0.0009908650618877888 0.007983870967741936)
(0.01599433687998287 0.0009908650618877888 0.008467741935483872)
(0.01599433687998287 0.0009908650618877888 0.008951612903225806)
(0.01599433687998287 0.0009908650618877888 0.009435483870967742)
(0.01599433687998287 0.0009908650618877888 0.009919354838709678)
(0.01599433687998287 0.0009908650618877888 0.010403225806451612)
(0.01599433687998287 0.0009908650618877888 0.010887096774193548)
(0.01599433687998287 0.0009908650618877888 0.011370967741935484)
(0.01599433687998287 0.0009908650618877888 0.011854838709677419)
(0.01599433687998287 0.0009908650618877888 0.012338709677419355)
(0.01599433687998287 0.0009908650618877888 0.01282258064516129)
(0.01599433687998287 0.0009908650618877888 0.013306451612903227)
(0.01599433687998287 0.0009908650618877888 0.013790322580645161)
(0.01599433687998287 0.0009908650618877888 0.014274193548387097)
(0.01599433687998287 0.0009908650618877888 0.014758064516129033)
(0.01595603545763651 0.0014851122098671651 0.00024193548387096774)
(0.01595603545763651 0.0014851122098671651 0.0007258064516129032)
(0.01595603545763651 0.0014851122098671651 0.0012096774193548388)
(0.01595603545763651 0.0014851122098671651 0.0016935483870967741)
(0.01595603545763651 0.0014851122098671651 0.0021774193548387095)
(0.01595603545763651 0.0014851122098671651 0.002661290322580645)
(0.01595603545763651 0.0014851122098671651 0.0031451612903225803)
(0.01595603545763651 0.0014851122098671651 0.003629032258064516)
(0.01595603545763651 0.0014851122098671651 0.004112903225806452)
(0.01595603545763651 0.0014851122098671651 0.004596774193548387)
(0.01595603545763651 0.0014851122098671651 0.005080645161290323)
(0.01595603545763651 0.0014851122098671651 0.005564516129032258)
(0.01595603545763651 0.0014851122098671651 0.006048387096774193)
(0.01595603545763651 0.0014851122098671651 0.006532258064516129)
(0.01595603545763651 0.0014851122098671651 0.0070161290322580646)
(0.01595603545763651 0.0014851122098671651 0.007500000000000001)
(0.01595603545763651 0.0014851122098671651 0.007983870967741936)
(0.01595603545763651 0.0014851122098671651 0.008467741935483872)
(0.01595603545763651 0.0014851122098671651 0.008951612903225806)
(0.01595603545763651 0.0014851122098671651 0.009435483870967742)
(0.01595603545763651 0.0014851122098671651 0.009919354838709678)
(0.01595603545763651 0.0014851122098671651 0.010403225806451612)
(0.01595603545763651 0.0014851122098671651 0.010887096774193548)
(0.01595603545763651 0.0014851122098671651 0.011370967741935484)
(0.01595603545763651 0.0014851122098671651 0.011854838709677419)
(0.01595603545763651 0.0014851122098671651 0.012338709677419355)
(0.01595603545763651 0.0014851122098671651 0.01282258064516129)
(0.01595603545763651 0.0014851122098671651 0.013306451612903227)
(0.01595603545763651 0.0014851122098671651 0.013790322580645161)
(0.01595603545763651 0.0014851122098671651 0.014274193548387097)
(0.01595603545763651 0.0014851122098671651 0.014758064516129033)
(0.015902464790137197 0.0019779381688254777 0.00024193548387096774)
(0.015902464790137197 0.0019779381688254777 0.0007258064516129032)
(0.015902464790137197 0.0019779381688254777 0.0012096774193548388)
(0.015902464790137197 0.0019779381688254777 0.0016935483870967741)
(0.015902464790137197 0.0019779381688254777 0.0021774193548387095)
(0.015902464790137197 0.0019779381688254777 0.002661290322580645)
(0.015902464790137197 0.0019779381688254777 0.0031451612903225803)
(0.015902464790137197 0.0019779381688254777 0.003629032258064516)
(0.015902464790137197 0.0019779381688254777 0.004112903225806452)
(0.015902464790137197 0.0019779381688254777 0.004596774193548387)
(0.015902464790137197 0.0019779381688254777 0.005080645161290323)
(0.015902464790137197 0.0019779381688254777 0.005564516129032258)
(0.015902464790137197 0.0019779381688254777 0.006048387096774193)
(0.015902464790137197 0.0019779381688254777 0.006532258064516129)
(0.015902464790137197 0.0019779381688254777 0.0070161290322580646)
(0.015902464790137197 0.0019779381688254777 0.007500000000000001)
(0.015902464790137197 0.0019779381688254777 0.007983870967741936)
(0.015902464790137197 0.0019779381688254777 0.008467741935483872)
(0.015902464790137197 0.0019779381688254777 0.008951612903225806)
(0.015902464790137197 0.0019779381688254777 0.009435483870967742)
(0.015902464790137197 0.0019779381688254777 0.009919354838709678)
(0.015902464790137197 0.0019779381688254777 0.010403225806451612)
(0.015902464790137197 0.0019779381688254777 0.010887096774193548)
(0.015902464790137197 0.0019779381688254777 0.011370967741935484)
(0.015902464790137197 0.0019779381688254777 0.011854838709677419)
(0.015902464790137197 0.0019779381688254777 0.012338709677419355)
(0.015902464790137197 0.0019779381688254777 0.01282258064516129)
(0.015902464790137197 0.0019779381688254777 0.013306451612903227)
(0.015902464790137197 0.0019779381688254777 0.013790322580645161)
(0.015902464790137197 0.0019779381688254777 0.014274193548387097)
(0.015902464790137197 0.0019779381688254777 0.014758064516129033)
(0.01583367614232809 0.0024688713253469092 0.00024193548387096774)
(0.01583367614232809 0.0024688713253469092 0.0007258064516129032)
(0.01583367614232809 0.0024688713253469092 0.0012096774193548388)
(0.01583367614232809 0.0024688713253469092 0.0016935483870967741)
(0.01583367614232809 0.0024688713253469092 0.0021774193548387095)
(0.01583367614232809 0.0024688713253469092 0.002661290322580645)
(0.01583367614232809 0.0024688713253469092 0.0031451612903225803)
(0.01583367614232809 0.0024688713253469092 0.003629032258064516)
(0.01583367614232809 0.0024688713253469092 0.004112903225806452)
(0.01583367614232809 0.0024688713253469092 0.004596774193548387)
(0.01583367614232809 0.0024688713253469092 0.005080645161290323)
(0.01583367614232809 0.0024688713253469092 0.005564516129032258)
(0.01583367614232809 0.0024688713253469092 0.006048387096774193)
(0.01583367614232809 0.0024688713253469092 0.006532258064516129)
(0.01583367614232809 0.0024688713253469092 0.0070161290322580646)
(0.01583367614232809 0.0024688713253469092 0.007500000000000001)
(0.01583367614232809 0.0024688713253469092 0.007983870967741936)
(0.01583367614232809 0.0024688713253469092 0.008467741935483872)
(0.01583367614232809 0.0024688713253469092 0.008951612903225806)
(0.01583367614232809 0.0024688713253469092 0.009435483870967742)
(0.01583367614232809 0.0024688713253469092 0.009919354838709678)
(0.01583367614232809 0.0024688713253469092 0.010403225806451612)
(0.01583367614232809 0.0024688713253469092 0.010887096774193548)
(0.01583367614232809 0.0024688713253469092 0.011370967741935484)
(0.01583367614232809 0.0024688713253469092 0.011854838709677419)
(0.01583367614232809 0.0024688713253469092 0.012338709677419355)
(0.01583367614232809 0.0024688713253469092 0.01282258064516129)
(0.01583367614232809 0.0024688713253469092 0.013306451612903227)
(0.01583367614232809 0.0024688713253469092 0.013790322580645161)
(0.01583367614232809 0.0024688713253469092 0.014274193548387097)
(0.01583367614232809 0.0024688713253469092 0.014758064516129033)
(0.015749735342010206 0.0029574418773468175 0.00024193548387096774)
(0.015749735342010206 0.0029574418773468175 0.0007258064516129032)
(0.015749735342010206 0.0029574418773468175 0.0012096774193548388)
(0.015749735342010206 0.0029574418773468175 0.0016935483870967741)
(0.015749735342010206 0.0029574418773468175 0.0021774193548387095)
(0.015749735342010206 0.0029574418773468175 0.002661290322580645)
(0.015749735342010206 0.0029574418773468175 0.0031451612903225803)
(0.015749735342010206 0.0029574418773468175 0.003629032258064516)
(0.015749735342010206 0.0029574418773468175 0.004112903225806452)
(0.015749735342010206 0.0029574418773468175 0.004596774193548387)
(0.015749735342010206 0.0029574418773468175 0.005080645161290323)
(0.015749735342010206 0.0029574418773468175 0.005564516129032258)
(0.015749735342010206 0.0029574418773468175 0.006048387096774193)
(0.015749735342010206 0.0029574418773468175 0.006532258064516129)
(0.015749735342010206 0.0029574418773468175 0.0070161290322580646)
(0.015749735342010206 0.0029574418773468175 0.007500000000000001)
(0.015749735342010206 0.0029574418773468175 0.007983870967741936)
(0.015749735342010206 0.0029574418773468175 0.008467741935483872)
(0.015749735342010206 0.0029574418773468175 0.008951612903225806)
(0.015749735342010206 0.0029574418773468175 0.009435483870967742)
(0.015749735342010206 0.0029574418773468175 0.009919354838709678)
(0.015749735342010206 0.0029574418773468175 0.010403225806451612)
(0.015749735342010206 0.0029574418773468175 0.010887096774193548)
(0.015749735342010206 0.0029574418773468175 0.011370967741935484)
(0.015749735342010206 0.0029574418773468175 0.011854838709677419)
(0.015749735342010206 0.0029574418773468175 0.012338709677419355)
(0.015749735342010206 0.0029574418773468175 0.01282258064516129)
(0.015749735342010206 0.0029574418773468175 0.013306451612903227)
(0.015749735342010206 0.0029574418773468175 0.013790322580645161)
(0.015749735342010206 0.0029574418773468175 0.014274193548387097)
(0.015749735342010206 0.0029574418773468175 0.014758064516129033)
(0.015650722716948028 0.003443182283652282 0.00024193548387096774)
(0.015650722716948028 0.003443182283652282 0.0007258064516129032)
(0.015650722716948028 0.003443182283652282 0.0012096774193548388)
(0.015650722716948028 0.003443182283652282 0.0016935483870967741)
(0.015650722716948028 0.003443182283652282 0.0021774193548387095)
(0.015650722716948028 0.003443182283652282 0.002661290322580645)
(0.015650722716948028 0.003443182283652282 0.0031451612903225803)
(0.015650722716948028 0.003443182283652282 0.003629032258064516)
(0.015650722716948028 0.003443182283652282 0.004112903225806452)
(0.015650722716948028 0.003443182283652282 0.004596774193548387)
(0.015650722716948028 0.003443182283652282 0.005080645161290323)
(0.015650722716948028 0.003443182283652282 0.005564516129032258)
(0.015650722716948028 0.003443182283652282 0.006048387096774193)
(0.015650722716948028 0.003443182283652282 0.006532258064516129)
(0.015650722716948028 0.003443182283652282 0.0070161290322580646)
(0.015650722716948028 0.003443182283652282 0.007500000000000001)
(0.015650722716948028 0.003443182283652282 0.007983870967741936)
(0.015650722716948028 0.003443182283652282 0.008467741935483872)
(0.015650722716948028 0.003443182283652282 0.008951612903225806)
(0.015650722716948028 0.003443182283652282 0.009435483870967742)
(0.015650722716948028 0.003443182283652282 0.009919354838709678)
(0.015650722716948028 0.003443182283652282 0.010403225806451612)
(0.015650722716948028 0.003443182283652282 0.010887096774193548)
(0.015650722716948028 0.003443182283652282 0.011370967741935484)
(0.015650722716948028 0.003443182283652282 0.011854838709677419)
(0.015650722716948028 0.003443182283652282 0.012338709677419355)
(0.015650722716948028 0.003443182283652282 0.01282258064516129)
(0.015650722716948028 0.003443182283652282 0.013306451612903227)
(0.015650722716948028 0.003443182283652282 0.013790322580645161)
(0.015650722716948028 0.003443182283652282 0.014274193548387097)
(0.015650722716948028 0.003443182283652282 0.014758064516129033)
(0.01553673301799927 0.003925627711419064 0.00024193548387096774)
(0.01553673301799927 0.003925627711419064 0.0007258064516129032)
(0.01553673301799927 0.003925627711419064 0.0012096774193548388)
(0.01553673301799927 0.003925627711419064 0.0016935483870967741)
(0.01553673301799927 0.003925627711419064 0.0021774193548387095)
(0.01553673301799927 0.003925627711419064 0.002661290322580645)
(0.01553673301799927 0.003925627711419064 0.0031451612903225803)
(0.01553673301799927 0.003925627711419064 0.003629032258064516)
(0.01553673301799927 0.003925627711419064 0.004112903225806452)
(0.01553673301799927 0.003925627711419064 0.004596774193548387)
(0.01553673301799927 0.003925627711419064 0.005080645161290323)
(0.01553673301799927 0.003925627711419064 0.005564516129032258)
(0.01553673301799927 0.003925627711419064 0.006048387096774193)
(0.01553673301799927 0.003925627711419064 0.006532258064516129)
(0.01553673301799927 0.003925627711419064 0.0070161290322580646)
(0.01553673301799927 0.003925627711419064 0.007500000000000001)
(0.01553673301799927 0.003925627711419064 0.007983870967741936)
(0.01553673301799927 0.003925627711419064 0.008467741935483872)
(0.01553673301799927 0.003925627711419064 0.008951612903225806)
(0.01553673301799927 0.003925627711419064 0.009435483870967742)
(0.01553673301799927 0.003925627711419064 0.009919354838709678)
(0.01553673301799927 0.003925627711419064 0.010403225806451612)
(0.01553673301799927 0.003925627711419064 0.010887096774193548)
(0.01553673301799927 0.003925627711419064 0.011370967741935484)
(0.01553673301799927 0.003925627711419064 0.011854838709677419)
(0.01553673301799927 0.003925627711419064 0.012338709677419355)
(0.01553673301799927 0.003925627711419064 0.01282258064516129)
(0.01553673301799927 0.003925627711419064 0.013306451612903227)
(0.01553673301799927 0.003925627711419064 0.013790322580645161)
(0.01553673301799927 0.003925627711419064 0.014274193548387097)
(0.01553673301799927 0.003925627711419064 0.014758064516129033)
(0.015407875328442344 0.004404316480956801 0.00024193548387096774)
(0.015407875328442344 0.004404316480956801 0.0007258064516129032)
(0.015407875328442344 0.004404316480956801 0.0012096774193548388)
(0.015407875328442344 0.004404316480956801 0.0016935483870967741)
(0.015407875328442344 0.004404316480956801 0.0021774193548387095)
(0.015407875328442344 0.004404316480956801 0.002661290322580645)
(0.015407875328442344 0.004404316480956801 0.0031451612903225803)
(0.015407875328442344 0.004404316480956801 0.003629032258064516)
(0.015407875328442344 0.004404316480956801 0.004112903225806452)
(0.015407875328442344 0.004404316480956801 0.004596774193548387)
(0.015407875328442344 0.004404316480956801 0.005080645161290323)
(0.015407875328442344 0.004404316480956801 0.005564516129032258)
(0.015407875328442344 0.004404316480956801 0.006048387096774193)
(0.015407875328442344 0.004404316480956801 0.006532258064516129)
(0.015407875328442344 0.004404316480956801 0.0070161290322580646)
(0.015407875328442344 0.004404316480956801 0.007500000000000001)
(0.015407875328442344 0.004404316480956801 0.007983870967741936)
(0.015407875328442344 0.004404316480956801 0.008467741935483872)
(0.015407875328442344 0.004404316480956801 0.008951612903225806)
(0.015407875328442344 0.004404316480956801 0.009435483870967742)
(0.015407875328442344 0.004404316480956801 0.009919354838709678)
(0.015407875328442344 0.004404316480956801 0.010403225806451612)
(0.015407875328442344 0.004404316480956801 0.010887096774193548)
(0.015407875328442344 0.004404316480956801 0.011370967741935484)
(0.015407875328442344 0.004404316480956801 0.011854838709677419)
(0.015407875328442344 0.004404316480956801 0.012338709677419355)
(0.015407875328442344 0.004404316480956801 0.01282258064516129)
(0.015407875328442344 0.004404316480956801 0.013306451612903227)
(0.015407875328442344 0.004404316480956801 0.013790322580645161)
(0.015407875328442344 0.004404316480956801 0.014274193548387097)
(0.015407875328442344 0.004404316480956801 0.014758064516129033)
(0.015264272959588316 0.004878790507536775 0.00024193548387096774)
(0.015264272959588316 0.004878790507536775 0.0007258064516129032)
(0.015264272959588316 0.004878790507536775 0.0012096774193548388)
(0.015264272959588316 0.004878790507536775 0.0016935483870967741)
(0.015264272959588316 0.004878790507536775 0.0021774193548387095)
(0.015264272959588316 0.004878790507536775 0.002661290322580645)
(0.015264272959588316 0.004878790507536775 0.0031451612903225803)
(0.015264272959588316 0.004878790507536775 0.003629032258064516)
(0.015264272959588316 0.004878790507536775 0.004112903225806452)
(0.015264272959588316 0.004878790507536775 0.004596774193548387)
(0.015264272959588316 0.004878790507536775 0.005080645161290323)
(0.015264272959588316 0.004878790507536775 0.005564516129032258)
(0.015264272959588316 0.004878790507536775 0.006048387096774193)
(0.015264272959588316 0.004878790507536775 0.006532258064516129)
(0.015264272959588316 0.004878790507536775 0.0070161290322580646)
(0.015264272959588316 0.004878790507536775 0.007500000000000001)
(0.015264272959588316 0.004878790507536775 0.007983870967741936)
(0.015264272959588316 0.004878790507536775 0.008467741935483872)
(0.015264272959588316 0.004878790507536775 0.008951612903225806)
(0.015264272959588316 0.004878790507536775 0.009435483870967742)
(0.015264272959588316 0.004878790507536775 0.009919354838709678)
(0.015264272959588316 0.004878790507536775 0.010403225806451612)
(0.015264272959588316 0.004878790507536775 0.010887096774193548)
(0.015264272959588316 0.004878790507536775 0.011370967741935484)
(0.015264272959588316 0.004878790507536775 0.011854838709677419)
(0.015264272959588316 0.004878790507536775 0.012338709677419355)
(0.015264272959588316 0.004878790507536775 0.01282258064516129)
(0.015264272959588316 0.004878790507536775 0.013306451612903227)
(0.015264272959588316 0.004878790507536775 0.013790322580645161)
(0.015264272959588316 0.004878790507536775 0.014274193548387097)
(0.015264272959588316 0.004878790507536775 0.014758064516129033)
(0.015106063332777241 0.005348595739759452 0.00024193548387096774)
(0.015106063332777241 0.005348595739759452 0.0007258064516129032)
(0.015106063332777241 0.005348595739759452 0.0012096774193548388)
(0.015106063332777241 0.005348595739759452 0.0016935483870967741)
(0.015106063332777241 0.005348595739759452 0.0021774193548387095)
(0.015106063332777241 0.005348595739759452 0.002661290322580645)
(0.015106063332777241 0.005348595739759452 0.0031451612903225803)
(0.015106063332777241 0.005348595739759452 0.003629032258064516)
(0.015106063332777241 0.005348595739759452 0.004112903225806452)
(0.015106063332777241 0.005348595739759452 0.004596774193548387)
(0.015106063332777241 0.005348595739759452 0.005080645161290323)
(0.015106063332777241 0.005348595739759452 0.005564516129032258)
(0.015106063332777241 0.005348595739759452 0.006048387096774193)
(0.015106063332777241 0.005348595739759452 0.006532258064516129)
(0.015106063332777241 0.005348595739759452 0.0070161290322580646)
(0.015106063332777241 0.005348595739759452 0.007500000000000001)
(0.015106063332777241 0.005348595739759452 0.007983870967741936)
(0.015106063332777241 0.005348595739759452 0.008467741935483872)
(0.015106063332777241 0.005348595739759452 0.008951612903225806)
(0.015106063332777241 0.005348595739759452 0.009435483870967742)
(0.015106063332777241 0.005348595739759452 0.009919354838709678)
(0.015106063332777241 0.005348595739759452 0.010403225806451612)
(0.015106063332777241 0.005348595739759452 0.010887096774193548)
(0.015106063332777241 0.005348595739759452 0.011370967741935484)
(0.015106063332777241 0.005348595739759452 0.011854838709677419)
(0.015106063332777241 0.005348595739759452 0.012338709677419355)
(0.015106063332777241 0.005348595739759452 0.01282258064516129)
(0.015106063332777241 0.005348595739759452 0.013306451612903227)
(0.015106063332777241 0.005348595739759452 0.013790322580645161)
(0.015106063332777241 0.005348595739759452 0.014274193548387097)
(0.015106063332777241 0.005348595739759452 0.014758064516129033)
(0.014933397847871807 0.005813282594062296 0.00024193548387096774)
(0.014933397847871807 0.005813282594062296 0.0007258064516129032)
(0.014933397847871807 0.005813282594062296 0.0012096774193548388)
(0.014933397847871807 0.005813282594062296 0.0016935483870967741)
(0.014933397847871807 0.005813282594062296 0.0021774193548387095)
(0.014933397847871807 0.005813282594062296 0.002661290322580645)
(0.014933397847871807 0.005813282594062296 0.0031451612903225803)
(0.014933397847871807 0.005813282594062296 0.003629032258064516)
(0.014933397847871807 0.005813282594062296 0.004112903225806452)
(0.014933397847871807 0.005813282594062296 0.004596774193548387)
(0.014933397847871807 0.005813282594062296 0.005080645161290323)
(0.014933397847871807 0.005813282594062296 0.005564516129032258)
(0.014933397847871807 0.005813282594062296 0.006048387096774193)
(0.014933397847871807 0.005813282594062296 0.006532258064516129)
(0.014933397847871807 0.005813282594062296 0.0070161290322580646)
(0.014933397847871807 0.005813282594062296 0.007500000000000001)
(0.014933397847871807 0.005813282594062296 0.007983870967741936)
(0.014933397847871807 0.005813282594062296 0.008467741935483872)
(0.014933397847871807 0.005813282594062296 0.008951612903225806)
(0.014933397847871807 0.005813282594062296 0.009435483870967742)
(0.014933397847871807 0.005813282594062296 0.009919354838709678)
(0.014933397847871807 0.005813282594062296 0.010403225806451612)
(0.014933397847871807 0.005813282594062296 0.010887096774193548)
(0.014933397847871807 0.005813282594062296 0.011370967741935484)
(0.014933397847871807 0.005813282594062296 0.011854838709677419)
(0.014933397847871807 0.005813282594062296 0.012338709677419355)
(0.014933397847871807 0.005813282594062296 0.01282258064516129)
(0.014933397847871807 0.005813282594062296 0.013306451612903227)
(0.014933397847871807 0.005813282594062296 0.013790322580645161)
(0.014933397847871807 0.005813282594062296 0.014274193548387097)
(0.014933397847871807 0.005813282594062296 0.014758064516129033)
(0.014746441738374126 0.006272406384952066 0.00024193548387096774)
(0.014746441738374126 0.006272406384952066 0.0007258064516129032)
(0.014746441738374126 0.006272406384952066 0.0012096774193548388)
(0.014746441738374126 0.006272406384952066 0.0016935483870967741)
(0.014746441738374126 0.006272406384952066 0.0021774193548387095)
(0.014746441738374126 0.006272406384952066 0.002661290322580645)
(0.014746441738374126 0.006272406384952066 0.0031451612903225803)
(0.014746441738374126 0.006272406384952066 0.003629032258064516)
(0.014746441738374126 0.006272406384952066 0.004112903225806452)
(0.014746441738374126 0.006272406384952066 0.004596774193548387)
(0.014746441738374126 0.006272406384952066 0.005080645161290323)
(0.014746441738374126 0.006272406384952066 0.005564516129032258)
(0.014746441738374126 0.006272406384952066 0.006048387096774193)
(0.014746441738374126 0.006272406384952066 0.006532258064516129)
(0.014746441738374126 0.006272406384952066 0.0070161290322580646)
(0.014746441738374126 0.006272406384952066 0.007500000000000001)
(0.014746441738374126 0.006272406384952066 0.007983870967741936)
(0.014746441738374126 0.006272406384952066 0.008467741935483872)
(0.014746441738374126 0.006272406384952066 0.008951612903225806)
(0.014746441738374126 0.006272406384952066 0.009435483870967742)
(0.014746441738374126 0.006272406384952066 0.009919354838709678)
(0.014746441738374126 0.006272406384952066 0.010403225806451612)
(0.014746441738374126 0.006272406384952066 0.010887096774193548)
(0.014746441738374126 0.006272406384952066 0.011370967741935484)
(0.014746441738374126 0.006272406384952066 0.011854838709677419)
(0.014746441738374126 0.006272406384952066 0.012338709677419355)
(0.014746441738374126 0.006272406384952066 0.01282258064516129)
(0.014746441738374126 0.006272406384952066 0.013306451612903227)
(0.014746441738374126 0.006272406384952066 0.013790322580645161)
(0.014746441738374126 0.006272406384952066 0.014274193548387097)
(0.014746441738374126 0.006272406384952066 0.014758064516129033)
(0.014545373913304321 0.006725527750549849 0.00024193548387096774)
(0.014545373913304321 0.006725527750549849 0.0007258064516129032)
(0.014545373913304321 0.006725527750549849 0.0012096774193548388)
(0.014545373913304321 0.006725527750549849 0.0016935483870967741)
(0.014545373913304321 0.006725527750549849 0.0021774193548387095)
(0.014545373913304321 0.006725527750549849 0.002661290322580645)
(0.014545373913304321 0.006725527750549849 0.0031451612903225803)
(0.014545373913304321 0.006725527750549849 0.003629032258064516)
(0.014545373913304321 0.006725527750549849 0.004112903225806452)
(0.014545373913304321 0.006725527750549849 0.004596774193548387)
(0.014545373913304321 0.006725527750549849 0.005080645161290323)
(0.014545373913304321 0.006725527750549849 0.005564516129032258)
(0.014545373913304321 0.006725527750549849 0.006048387096774193)
(0.014545373913304321 0.006725527750549849 0.006532258064516129)
(0.014545373913304321 0.006725527750549849 0.0070161290322580646)
(0.014545373913304321 0.006725527750549849 0.007500000000000001)
(0.014545373913304321 0.006725527750549849 0.007983870967741936)
(0.014545373913304321 0.006725527750549849 0.008467741935483872)
(0.014545373913304321 0.006725527750549849 0.008951612903225806)
(0.014545373913304321 0.006725527750549849 0.009435483870967742)
(0.014545373913304321 0.006725527750549849 0.009919354838709678)
(0.014545373913304321 0.006725527750549849 0.010403225806451612)
(0.014545373913304321 0.006725527750549849 0.010887096774193548)
(0.014545373913304321 0.006725527750549849 0.011370967741935484)
(0.014545373913304321 0.006725527750549849 0.011854838709677419)
(0.014545373913304321 0.006725527750549849 0.012338709677419355)
(0.014545373913304321 0.006725527750549849 0.01282258064516129)
(0.014545373913304321 0.006725527750549849 0.013306451612903227)
(0.014545373913304321 0.006725527750549849 0.013790322580645161)
(0.014545373913304321 0.006725527750549849 0.014274193548387097)
(0.014545373913304321 0.006725527750549849 0.014758064516129033)
(0.014330386785992227 0.007172213073041639 0.00024193548387096774)
(0.014330386785992227 0.007172213073041639 0.0007258064516129032)
(0.014330386785992227 0.007172213073041639 0.0012096774193548388)
(0.014330386785992227 0.007172213073041639 0.0016935483870967741)
(0.014330386785992227 0.007172213073041639 0.0021774193548387095)
(0.014330386785992227 0.007172213073041639 0.002661290322580645)
(0.014330386785992227 0.007172213073041639 0.0031451612903225803)
(0.014330386785992227 0.007172213073041639 0.003629032258064516)
(0.014330386785992227 0.007172213073041639 0.004112903225806452)
(0.014330386785992227 0.007172213073041639 0.004596774193548387)
(0.014330386785992227 0.007172213073041639 0.005080645161290323)
(0.014330386785992227 0.007172213073041639 0.005564516129032258)
(0.014330386785992227 0.007172213073041639 0.006048387096774193)
(0.014330386785992227 0.007172213073041639 0.006532258064516129)
(0.014330386785992227 0.007172213073041639 0.0070161290322580646)
(0.014330386785992227 0.007172213073041639 0.007500000000000001)