/*--------------------------------*- C++ -*----------------------------------*\
| =========                 |                                                 |
| \\      /  F ield         | OpenFOAM: The Open Source CFD Toolbox           |
|  \\    /   O peration     | Version:  1.6                                   |
|   \\  /    A nd           | Web:      http://www.OpenFOAM.org               |
|    \\/     M anipulation  |                                                 |
\*---------------------------------------------------------------------------*/
FoamFile
{
    version     2.0;
    format      ascii;
    class       dictionary;
    object      controlDict;
}
// * * * * * * * * * * * * * * * * * * * * * * * * * * * * * * * * * * * * * //

application                chtEvaDyMPhaseChangeFoam;

startFrom                  latestTime;

startTime                  0;

stopAt                     endTime;

endTime                    1;

deltaT                     1e-08;

writeControl               adjustableRunTime;

writeInterval             1E-02;

purgeWrite                 0;

writeFormat                ascii;

writePrecision             8;

writeCompression           uncompressed;

timeFormat                 general;

runTimeModifiable          yes;

adjustTimeStep             on;

maxCo                      0.1;
maxAlphaCo      	   0.25;
maxDi                      1.0;
maxDeltaT       1E-04;
// ************************************************************************* //
