/*--------------------------------*- C++ -*----------------------------------*\
| =========                 |                                                 |
| \\      /  F ield         | OpenFOAM: The Open Source CFD Toolbox           |
|  \\    /   O peration     | Version:  2.2.0                                 |
|   \\  /    A nd           | Web:      www.OpenFOAM.org                      |
|    \\/     M anipulation  |                                                 |
\*---------------------------------------------------------------------------*/
FoamFile
{
    version     2.0;
    format      ascii;
    class       dictionary;
    object      topoSetDict;
}

// * * * * * * * * * * * * * * * * * * * * * * * * * * * * * * * * * * * * * //

actions
(
    // Heater
    {
        name    solid;
        type    cellSet;
        action  new;
        source  boxToCell;
        sourceInfo
        {
            box (0 0 0)(0.1 0.1 0.1);
        }
    }
    {
        name    solid;
        type    cellZoneSet;
        action  new;
        source  setToCellZone;
        sourceInfo
        {
            set solid;           // name of cellSet
        }
    }

      // two phase flow is all the other cells
    {
        name    fluid;
        type    cellZoneSet;
        action  clear;
    }
    {
        name    fluid;
        type    cellSet;
        action  add;
        source  cellToCell;
        sourceInfo
        {
            set solid;
        }
    }
    {
        name    fluid;
        type    cellSet;
        action  invert;
    }
    {
        name    fluid;
        type    cellZoneSet;
        action  new;
        source  setToCellZone;
        sourceInfo
        {
            set fluid;
        }
    }
);

// ************************************************************************* //
