/*--------------------------------*- C++ -*----------------------------------*\
  =========                 |
  \\      /  F ield         | OpenFOAM: The Open Source CFD Toolbox
   \\    /   O peration     | Website:  https://openfoam.org
    \\  /    A nd           | Version:  9
     \\/     M anipulation  |
\*---------------------------------------------------------------------------*/
FoamFile
{
    format      ascii;
    class       dictionary;
    location    "system";
    object      fvSolution;
}
// * * * * * * * * * * * * * * * * * * * * * * * * * * * * * * * * * * * * * //

solvers
{
    "alpha.*"
    {
        nAlphaCorr      2;
        nAlphaSubCycles 1;

        MULESCorr       yes;
        nLimiterIter    3;
        alphaApplyPrevCorr  yes;

        boundaryExtremaCoeff 1;

        solver          smoothSolver;
        smoother        symGaussSeidel;
        tolerance       1e-6;
        relTol          0.001;
        minIter         1;
        maxIter		40;
    }

    "alpha.*Diffusion"
    {
        solver          PCG;
        preconditioner  DIC;
        tolerance       1e-6;
        relTol          0;
        minIter         1;
    }

    p_rgh
    {
        solver          GAMG;
        tolerance       1e-7;
        relTol          0.01;
        smoother        GaussSeidel;
        nCellsInCoarsestLevel 20;
        maxIter		40;
    }

    p_rghFinal
    {
        $p_rgh;
        relTol          0;
        maxIter		40;
    }

    "(U|k|epsilon)"
    {
        solver          PBiCGStab;
        preconditioner  DILU;
        tolerance       1e-7;
        relTol          0.1;
        minIter         1;
    }

    "(U|k|epsilon)Final"
    {
        $k;
        relTol          0;
    }
}

PIMPLE
{
    momentumPredictor no;
    //nOuterCorrectors 1;
    nCorrectors     3;
    nNonOrthogonalCorrectors 1;
    pRefCell        0;
    pRefValue       0;
}

relaxationFactors
{
    equations
    {
        ".*"           1;
    }
}


// ************************************************************************* //
