/*--------------------------------*- C++ -*----------------------------------*\
| =========                 |                                                 |
| \\      /  F ield         | OpenFOAM: The Open Source CFD Toolbox           |
|  \\    /   O peration     | Version:  2.1.0                                 |
|   \\  /    A nd           | Web:      www.OpenFOAM.org                      |
|    \\/     M anipulation  |                                                 |
\*---------------------------------------------------------------------------*/
FoamFile
{
    version     2.0;
    format      ascii;
    class       dictionary;
    location    "system";
    object      fvSchemes;
}
// * * * * * * * * * * * * * * * * * * * * * * * * * * * * * * * * * * * * * //

ddtSchemes
{
    default Euler;
}

gradSchemes
{
    default         none;//Gauss linear;
    grad(T)         Gauss linear;
}

divSchemes
{     

}

laplacianSchemes
{
    default         none;//
    laplacian(K,T)  Gauss linear uncorrected;//Gauss linear limited 0.333;//
}

interpolationSchemes
{
    default         none;//
    interpolate((rho*Cp)) linear;
    interpolate(K) linear;
}

snGradSchemes
{
    default         none;//uncorrected;
}

fluxRequired
{
    default         no;
}


// ************************************************************************* //
