/*--------------------------------*- C++ -*----------------------------------*\
| =========                 |                                                 |
| \\      /  F ield         | OpenFOAM: The Open Source CFD Toolbox           |
|  \\    /   O peration     | Version:  2.1.0                                 |
|   \\  /    A nd           | Web:      www.OpenFOAM.org                      |
|    \\/     M anipulation  |                                                 |
\*---------------------------------------------------------------------------*/
FoamFile
{
    version     2.0;
    format      ascii;
    class       dictionary;
    object      fvSolution;
}
// * * * * * * * * * * * * * * * * * * * * * * * * * * * * * * * * * * * * * //

solvers
{

    T //add
    {
        solver           PCG;
        preconditioner   FDIC;
        tolerance        1e-8;
        relTol           0;
    };
  
    TFinal
    {
       $T;
    }
    
}

PIMPLE
{
 nNonOrthCorr 0;
}

// ************************************************************************* //
